<?xml version="1.0" encoding="UTF-8"?>

<!-- generated on 2022-05-13 22:46:38 by Eclipse SUMO GUI Version 1.13.0
-->

<configuration xmlns:xsi="http://www.w3.org/2001/XMLSchema-instance" xsi:noNamespaceSchemaLocation="http://sumo.dlr.de/xsd/sumoConfiguration.xsd">

    <input>
        <net-file value="C:\Users\marto\PycharmProjects\gym_testcross\_sumo\simplest_intersection.net.xml"/>
        <route-files value="C:\Users\marto\PycharmProjects\gym_testcross\_sumo\simplest_intersection_traffic.rou.xml"/>
        <additional-files value="C:\Users\marto\PycharmProjects\gym_testcross\_sumo\simplest_intersection_detectors.xml"/>
    </input>

</configuration>
