<?xml version="1.0" encoding="UTF-8"?>

<!-- generated on 2022-05-12 22:07:38 by Eclipse SUMO netedit Version 1.13.0
<configuration xmlns:xsi="http://www.w3.org/2001/XMLSchema-instance" xsi:noNamespaceSchemaLocation="http://sumo.dlr.de/xsd/netconvertConfiguration.xsd">

    <output>
        <output-file value="C:\Users\marto\PycharmProjects\gym_testcross\_sumo\simplest_intersection.net.xml"/>
    </output>

    <processing>
        <offset.disable-normalization value="true"/>
        <lefthand value="true"/>
    </processing>

    <junctions>
        <no-turnarounds value="true"/>
    </junctions>

    <report>
        <aggregate-warnings value="5"/>
    </report>

</configuration>
-->

<net version="1.9" junctionCornerDetail="5" lefthand="true" limitTurnSpeed="5.50" xmlns:xsi="http://www.w3.org/2001/XMLSchema-instance" xsi:noNamespaceSchemaLocation="http://sumo.dlr.de/xsd/net_file.xsd">

    <location netOffset="0.00,-0.00" convBoundary="-100.00,-100.00,100.00,100.00" origBoundary="10000000000.00,10000000000.00,-10000000000.00,-10000000000.00" projParameter="!"/>

    <edge id=":intersection_0" function="internal">
        <lane id=":intersection_0_0" index="0" speed="16.67" length="20.80" shape="-4.80,-10.40 -4.80,10.40"/>
        <lane id=":intersection_0_1" index="1" speed="16.67" length="20.80" shape="-1.60,-10.40 -1.60,10.40"/>
    </edge>
    <edge id=":intersection_2" function="internal">
        <lane id=":intersection_2_0" index="0" speed="16.67" length="20.80" shape="10.40,-4.80 -10.40,-4.80"/>
        <lane id=":intersection_2_1" index="1" speed="16.67" length="20.80" shape="10.40,-1.60 -10.40,-1.60"/>
    </edge>
    <edge id=":intersection_4" function="internal">
        <lane id=":intersection_4_0" index="0" speed="16.67" length="20.80" shape="4.80,10.40 4.80,-10.40"/>
        <lane id=":intersection_4_1" index="1" speed="16.67" length="20.80" shape="1.60,10.40 1.60,-10.40"/>
    </edge>
    <edge id=":intersection_6" function="internal">
        <lane id=":intersection_6_0" index="0" speed="16.67" length="20.80" shape="-10.40,4.80 10.40,4.80"/>
        <lane id=":intersection_6_1" index="1" speed="16.67" length="20.80" shape="-10.40,1.60 10.40,1.60"/>
    </edge>

    <edge id="east_entry" from="east" to="intersection" priority="-1">
        <lane id="east_entry_0" index="0" speed="16.67" length="89.60" shape="100.00,-4.80 10.40,-4.80"/>
        <lane id="east_entry_1" index="1" speed="16.67" length="89.60" shape="100.00,-1.60 10.40,-1.60"/>
    </edge>
    <edge id="east_exit" from="intersection" to="east" priority="-1">
        <lane id="east_exit_0" index="0" speed="16.67" length="89.60" shape="10.40,4.80 100.00,4.80"/>
        <lane id="east_exit_1" index="1" speed="16.67" length="89.60" shape="10.40,1.60 100.00,1.60"/>
    </edge>
    <edge id="north_entry" from="north" to="intersection" priority="-1">
        <lane id="north_entry_0" index="0" speed="16.67" length="89.60" shape="4.80,100.00 4.80,10.40"/>
        <lane id="north_entry_1" index="1" speed="16.67" length="89.60" shape="1.60,100.00 1.60,10.40"/>
    </edge>
    <edge id="north_exit" from="intersection" to="north" priority="-1">
        <lane id="north_exit_0" index="0" speed="16.67" length="89.60" shape="-4.80,10.40 -4.80,100.00"/>
        <lane id="north_exit_1" index="1" speed="16.67" length="89.60" shape="-1.60,10.40 -1.60,100.00"/>
    </edge>
    <edge id="south_entry" from="south" to="intersection" priority="-1">
        <lane id="south_entry_0" index="0" speed="16.67" length="89.60" shape="-4.80,-100.00 -4.80,-10.40"/>
        <lane id="south_entry_1" index="1" speed="16.67" length="89.60" shape="-1.60,-100.00 -1.60,-10.40"/>
    </edge>
    <edge id="south_exit" from="intersection" to="south" priority="-1">
        <lane id="south_exit_0" index="0" speed="16.67" length="89.60" shape="4.80,-10.40 4.80,-100.00"/>
        <lane id="south_exit_1" index="1" speed="16.67" length="89.60" shape="1.60,-10.40 1.60,-100.00"/>
    </edge>
    <edge id="west_entry" from="west" to="intersection" priority="-1">
        <lane id="west_entry_0" index="0" speed="16.67" length="89.60" shape="-100.00,4.80 -10.40,4.80"/>
        <lane id="west_entry_1" index="1" speed="16.67" length="89.60" shape="-100.00,1.60 -10.40,1.60"/>
    </edge>
    <edge id="west_exit" from="intersection" to="west" priority="-1">
        <lane id="west_exit_0" index="0" speed="16.67" length="89.60" shape="-10.40,-4.80 -100.00,-4.80"/>
        <lane id="west_exit_1" index="1" speed="16.67" length="89.60" shape="-10.40,-1.60 -100.00,-1.60"/>
    </edge>

    <tlLogic id="intersection" type="static" programID="1" offset="0">
        <phase duration="41" state="GGrrGGrr"/>
        <phase duration="4"  state="yyrryyrr"/>
        <phase duration="41" state="rrGGrrGG"/>
        <phase duration="4"  state="rryyrryy"/>
    </tlLogic>

    <junction id="east" type="dead_end" x="100.00" y="0.00" incLanes="east_exit_0 east_exit_1" intLanes="" shape="100.00,-0.00 100.00,6.40 100.00,-0.00"/>
    <junction id="intersection" type="traffic_light" x="0.00" y="0.00" incLanes="south_entry_0 south_entry_1 east_entry_0 east_entry_1 north_entry_0 north_entry_1 west_entry_0 west_entry_1" intLanes=":intersection_0_0 :intersection_0_1 :intersection_2_0 :intersection_2_1 :intersection_4_0 :intersection_4_1 :intersection_6_0 :intersection_6_1" shape="-6.40,-10.40 6.40,-10.40 6.84,-8.18 7.40,-7.40 8.18,-6.84 9.18,-6.51 10.40,-6.40 10.40,6.40 8.18,6.84 7.40,7.40 6.84,8.18 6.51,9.18 6.40,10.40 -6.40,10.40 -6.84,8.18 -7.40,7.40 -8.18,6.84 -9.18,6.51 -10.40,6.40 -10.40,-6.40 -8.18,-6.84 -7.40,-7.40 -6.84,-8.18 -6.51,-9.18">
        <request index="0" response="00000000" foes="11001100" cont="0"/>
        <request index="1" response="00000000" foes="11001100" cont="0"/>
        <request index="2" response="00110011" foes="00110011" cont="0"/>
        <request index="3" response="00110011" foes="00110011" cont="0"/>
        <request index="4" response="00000000" foes="11001100" cont="0"/>
        <request index="5" response="00000000" foes="11001100" cont="0"/>
        <request index="6" response="00110011" foes="00110011" cont="0"/>
        <request index="7" response="00110011" foes="00110011" cont="0"/>
    </junction>
    <junction id="north" type="dead_end" x="0.00" y="100.00" incLanes="north_exit_0 north_exit_1" intLanes="" shape="0.00,100.00 -6.40,100.00 0.00,100.00"/>
    <junction id="south" type="dead_end" x="0.00" y="-100.00" incLanes="south_exit_0 south_exit_1" intLanes="" shape="0.00,-100.00 6.40,-100.00 0.00,-100.00"/>
    <junction id="west" type="dead_end" x="-100.00" y="0.00" incLanes="west_exit_0 west_exit_1" intLanes="" shape="-100.00,-0.00 -100.00,-6.40 -100.00,-0.00"/>

    <connection from="east_entry" to="west_exit" fromLane="0" toLane="0" via=":intersection_2_0" tl="intersection" linkIndex="2" dir="s" state="o"/>
    <connection from="east_entry" to="west_exit" fromLane="1" toLane="1" via=":intersection_2_1" tl="intersection" linkIndex="3" dir="s" state="o"/>
    <connection from="north_entry" to="south_exit" fromLane="0" toLane="0" via=":intersection_4_0" tl="intersection" linkIndex="4" dir="s" state="O"/>
    <connection from="north_entry" to="south_exit" fromLane="1" toLane="1" via=":intersection_4_1" tl="intersection" linkIndex="5" dir="s" state="O"/>
    <connection from="south_entry" to="north_exit" fromLane="0" toLane="0" via=":intersection_0_0" tl="intersection" linkIndex="0" dir="s" state="O"/>
    <connection from="south_entry" to="north_exit" fromLane="1" toLane="1" via=":intersection_0_1" tl="intersection" linkIndex="1" dir="s" state="O"/>
    <connection from="west_entry" to="east_exit" fromLane="0" toLane="0" via=":intersection_6_0" tl="intersection" linkIndex="6" dir="s" state="o"/>
    <connection from="west_entry" to="east_exit" fromLane="1" toLane="1" via=":intersection_6_1" tl="intersection" linkIndex="7" dir="s" state="o"/>

    <connection from=":intersection_0" to="north_exit" fromLane="0" toLane="0" dir="s" state="M"/>
    <connection from=":intersection_0" to="north_exit" fromLane="1" toLane="1" dir="s" state="M"/>
    <connection from=":intersection_2" to="west_exit" fromLane="0" toLane="0" dir="s" state="M"/>
    <connection from=":intersection_2" to="west_exit" fromLane="1" toLane="1" dir="s" state="M"/>
    <connection from=":intersection_4" to="south_exit" fromLane="0" toLane="0" dir="s" state="M"/>
    <connection from=":intersection_4" to="south_exit" fromLane="1" toLane="1" dir="s" state="M"/>
    <connection from=":intersection_6" to="east_exit" fromLane="0" toLane="0" dir="s" state="M"/>
    <connection from=":intersection_6" to="east_exit" fromLane="1" toLane="1" dir="s" state="M"/>

</net>
