<?xml version="1.0" encoding="UTF-8"?>

<!-- generated on 2022-05-25 00:13:01 by Eclipse SUMO GUI Version 1.13.0
-->

<configuration xmlns:xsi="http://www.w3.org/2001/XMLSchema-instance" xsi:noNamespaceSchemaLocation="http://sumo.dlr.de/xsd/sumoConfiguration.xsd">

    <input>
        <net-file value="real_intersection.net.xml"/>
        <route-files value="real_intersection_traffic.rou.xml"/>
        <additional-files value="real_intersection_detectors.xml"/>
    </input>

</configuration>
